/*---------------------------------------------------------------------------*\
  VAWT H-rotor Darrieus — fvSolution
\*---------------------------------------------------------------------------*/

FoamFile
{
    version     2.0;
    format      ascii;
    class       dictionary;
    location    "system";
    object      fvSolution;
}

solvers
{
    p
    {
        solver          GAMG;
        tolerance       1e-6;
        relTol          0.01;
        smoother        GaussSeidel;
        nPreSweeps      0;
        nPostSweeps     2;
        cacheAgglomeration true;
        nCellsInCoarsestLevel 100;
    }

    "(U|k|omega)"
    {
        solver          smoothSolver;
        smoother        symGaussSeidel;
        tolerance       1e-6;
        relTol          0.1;
        nSweeps         1;
    }
}

SIMPLE
{
    nNonOrthogonalCorrectors 0;
    pRefCell        0;
    pRefValue       0;
}

PIMPLE
{
    momentumPredictor   yes;
    nOuterCorrectors    2;
    nCorrectors         3;
    nNonOrthogonalCorrectors 1;
    pRefCell            0;
    pRefValue           0;
}

relaxationFactors
{
    equations
    {
        "(U|k|omega)"   0.7;
    }
    fields
    {
        p               0.3;
    }
}
